<DOMSymbolItem xmlns:xsi="http://www.w3.org/2001/XMLSchema-instance" xmlns="http://ns.adobe.com/xfl/2008/" name="main_menu/panel_text/icon_rounded_add" itemID="4fb67642-00000ce0" symbolType="graphic" lastModified="1337366223" lastUniqueIdentifier="1">
  <timeline>
    <DOMTimeline name="icon_rounded_add">
      <layers>
        <DOMLayer name="arrow_shadow" color="#9933CC" autoNamed="false">
          <frames>
            <DOMFrame index="0" keyMode="9728">
              <elements>
                <DOMShape>
                  <fills>
                    <FillStyle index="1">
                      <SolidColor color="#FFFFFF"/>
                    </FillStyle>
                  </fills>
                  <edges>
                    <Edge fillStyle1="1" edges="!19 -110|134 1!134 1|19 110!19 110|19 44!19 44|-124 44!-124 44|-124 -36!-124 -36|19 -36!19 -36|19 -110"/>
                  </edges>
                </DOMShape>
              </elements>
            </DOMFrame>
          </frames>
        </DOMLayer>
        <DOMLayer name="arrow" color="#4FFF4F" current="true" isSelected="true" autoNamed="false">
          <frames>
            <DOMFrame index="0" keyMode="9728">
              <elements>
                <DOMShape>
                  <fills>
                    <FillStyle index="1">
                      <SolidColor/>
                    </FillStyle>
                  </fills>
                  <edges>
                    <Edge fillStyle1="1" edges="!23 -105|139 6!139 6|23 115!23 115|23 49!23 49|-119 49!-119 49|-119 -31!-119 -31|23 -31!23 -31|23 -105"/>
                  </edges>
                </DOMShape>
              </elements>
            </DOMFrame>
          </frames>
        </DOMLayer>
        <DOMLayer name="Layer 3" color="#FF800A" locked="true">
          <frames>
            <DOMFrame index="0" keyMode="9728">
              <elements>
                <DOMShape>
                  <fills>
                    <FillStyle index="1">
                      <SolidColor color="#00FF00"/>
                    </FillStyle>
                  </fills>
                  <edges>
                    <Edge fillStyle1="1" edges="!127 -128[180 -75 180 0!180 0[180 75 127 127!127 127[75 180 0 180!0 180[-75 180 -128 127!-128 127[-180 75 -180 0!-180 0[-180 -75 -128 -128!-128 -128[-75 -180 0 -180!0 -180[75 -180 127 -128"/>
                    <Edge cubics="!0 -180(;49,-180 92,-163 127,-128q0 -180Q75 -180q127 -128);"/>
                    <Edge cubics="!127 127(;92,162 49,180 0,180q127 127Q75 180q0 180);"/>
                    <Edge cubics="!180 0(;180,49 162,92 127,127q180 0Q180 75q127 127);"/>
                    <Edge cubics="!127 -128(;162,-93 180,-49 180,0q127 -128Q180 -75q180 0);"/>
                    <Edge cubics="!-128 127(;-163,92 -180,49 -180,0q-128 127Q-180 75q-180 0);"/>
                    <Edge cubics="!-180 0(;-180,-49 -163,-93 -128,-128q-180 0Q-180 -75q-128 -128);"/>
                    <Edge cubics="!0 180(;-49,180 -93,162 -128,127q0 180Q-75 180q-128 127);"/>
                    <Edge cubics="!-128 -128(-128,-128;-93,-163 -49,-180 0,-180q-128 -128Q-75 -180q0 -180)0,-180;"/>
                  </edges>
                </DOMShape>
              </elements>
            </DOMFrame>
          </frames>
        </DOMLayer>
      </layers>
    </DOMTimeline>
  </timeline>
</DOMSymbolItem>